Circuit: * C:\work\Draft1.asc

WARNING: Node N006 is floating.
WARNING: Node N003 is floating.
WARNING: Node N005 is floating.

WARNING: Less than two connections to node N006.  This node is used by M:U1:1.
WARNING: Less than two connections to node N003.  This node is used by M:U9:1.
WARNING: Less than two connections to node N005.  This node is used by M:U10:1.
Warning: LTspice supports BSIM3 version 3.3.0. Your model specified an unrecognized version: 3.24e+00
Warning: LTspice supports BSIM3 version 3.3.0. Your model specified an unrecognized version: 3.240e+00
Direct Newton iteration for .op point succeeded.

Date: Fri Apr 22 11:38:26 2022
Total elapsed time: 0.090 seconds.

tnom = 27
temp = 27
method = modified trap
totiter = 4783
traniter = 4759
tranpoints = 2074
accept = 1716
rejected = 358
matrix size = 38
fillins = 14
solver = Normal
Matrix Compiler1: 3.40 KB object code size  0.7/0.3/[0.2]
Matrix Compiler2: off  [0.3]/0.4/0.5

